yt_pl/funkwave/AIRGLOW - Memory Bank.opus
yt_pl/funkwave/Babes - Beats.opus
yt_pl/funkwave/Beckett - Crush.opus
yt_pl/funkwave/Beverly Girl - Mind Games.opus
yt_pl/funkwave/Beverly Girl - Talk About the Weather.opus
yt_pl/funkwave/DOOMROAR - Retro Youth.opus
yt_pl/funkwave/FEARCITY - Fastlife.opus
yt_pl/funkwave/FEARCITY - Gone Too Soon.opus
yt_pl/funkwave/FEARCITY - Marked For Sex.opus
yt_pl/funkwave/FEARCITY - Rude Girls.opus
yt_pl/funkwave/FEARCITY - Sexy Sciotti.opus
yt_pl/funkwave/FEARCITY - This Girl In My Prayers.opus
yt_pl/funkwave/Flávio La Barre - French Romance.opus
yt_pl/funkwave/Highway Superstar - Easy Ride.opus
yt_pl/funkwave/Highway Superstar - The Road to Alpha Centauri.opus
yt_pl/funkwave/Immortal Girlfriend  - Daybreak.opus
yt_pl/funkwave/Jay Diggs - Open Your Heart.opus
yt_pl/funkwave/Jay Diggs - Ready (feat. JJ Mist).opus
yt_pl/funkwave/Jordan F - Space Romance.opus
yt_pl/funkwave/Klockhaus - Chrome.opus
yt_pl/funkwave/Klockhaus - TinPlate Ant.opus
yt_pl/funkwave/Kotovsky - More Lovewaves.opus
yt_pl/funkwave/Maya - DLight.opus
yt_pl/funkwave/Midnight Club - No One Understands.opus
yt_pl/funkwave/Neon Vandal - ShadowDancer.opus
yt_pl/funkwave/PowercuT - Evening Swim.opus
yt_pl/funkwave/Raydar - Neon Graffiti.opus
yt_pl/funkwave/SaiR - Counterweight.opus
yt_pl/funkwave/SaiR - Remember When.opus
yt_pl/funkwave/Shiro Schwarz - Electrify.opus
yt_pl/funkwave/Stallions - West Coast Ride.opus
yt_pl/funkwave/Starlight - Memories.opus
yt_pl/funkwave/TELEMACHUS - City Nights.opus
yt_pl/funkwave/the Undead Audio - Steps and Strides.opus
yt_pl/funkwave/Timecop1983 - Indigo Tears.opus
yt_pl/funkwave/Tropical Heat - Sunset Pass.opus
yt_pl/funkwave/Vince Riviera - A Deeper Blue.opus
yt_pl/funkwave/XCVII - Desire For Sex.opus
yt_pl/funkwave/XCVII - Evening Pleasure.opus
yt_pl/funkwave/XCVII - Whatuwant.opus
yt_pl/funkwave/YXO - Vogue.opus
yt_pl/funkwave/Zyodara - Ebony Lover.opus
yt_pl/funkwave/Zyodara - Funk All Night Long (feat. Yasmina).opus
yt_pl/funkwave/Zyodara - Funkinwitya.opus
yt_pl/funkwave/Zyodara - Honey Dip.opus
yt_pl/funkwave/Zyodara - Izshefeelinme.opus
yt_pl/funkwave/Zyodara - Magnifique.opus
yt_pl/funkwave/Zyodara - Polysix Groove.opus
yt_pl/funkwave/Zyodara - Treat Ya Right.opus
